src/examples/case5/br1/results/res_branch_1.csv
branch,from_bus,to_bus,X,B,G,Bfr,Bto,p_from,p_to,q_from,q_to,p_loss,q_loss,s_from,s_to,rate_a,ang_deg,angmin,angmax
7,4,10,0.0297,-33.33666700003334,3.3336667000033335,0.00337,0.00337,-2.384054338421173,2.3999156871532055,0.13126219031968114,0.020118454874876686,0.015861348732032265,0.15138064519455782,2.387665146362098,2.4000000120147074,2.4,-3.804702918075568,-29.999999999999996,29.999999999999996
4,2,3,0.0108,-91.67583425009167,9.167583425009166,0.00926,0.00926,0.9599857804787112,-0.9590534772525889,-0.0005635939362912875,-0.009866501902193146,0.0009323032261222552,-0.010430095838484433,0.9599859459176708,0.9591042279596458,4.26,0.5564182502095582,-29.999999999999996,29.999999999999996
2,1,4,0.0304,-32.56904637832204,3.2569046378322044,0.00329,0.00329,1.6151717635762612,-1.6074054491131466,0.4532809380254277,-0.38275890687034814,0.007766314463114599,0.07052203115507955,1.677570694376622,1.6523488307942789,4.26,2.5200513468698538,-29.999999999999996,29.999999999999996
3,1,10,0.0064,-154.7029702970297,15.470297029702971,0.01563,0.01563,-3.5895073048558626,3.6000843728737726,2.2941310969428237,-2.222456632224612,0.01057706801791003,0.0716744647182117,4.260000021311464,4.230829820960554,4.26,-1.284651571205714,-29.999999999999996,29.999999999999996
5,3,4,0.0297,-33.33666700003334,3.3336667000033335,0.00337,0.00337,-0.15277951349065794,0.16118247532552687,-1.649762227263357,1.7269369121773415,0.008402961834868938,0.07717468491398449,1.6568213501302411,1.73444252974628,4.26,1.0198866787541074,-29.999999999999996,29.999999999999996
6,3,4,0.03274425,-30.23733968256992,3.023733968256992,0.0033860571712018145,0.0033860571712018145,0.1774528715779083,-0.1697226977902985,1.6518408800522526,-1.5821319627042814,0.00773017378760979,0.06970891734797124,1.6613451822673835,1.5912093958859463,4.26,1.0198866787541074,-29.999999999999996,29.999999999999996
